/*--------------------------------*- C++ -*----------------------------------*\
| =========                 |                                                 |
| \\      /  F ield         | OpenFOAM: The Open Source CFD Toolbox           |
|  \\    /   O peration     | Version:  2112                                  |
|   \\  /    A nd           | Website:  www.openfoam.com                      |
|    \\/     M anipulation  |                                                 |
\*---------------------------------------------------------------------------*/
FoamFile
{
    version     2.0;
    format      ascii;
    arch        "LSB;label=32;scalar=64";
    class       volScalarField;
    location    "0/battery1";
    object      T;
}
// * * * * * * * * * * * * * * * * * * * * * * * * * * * * * * * * * * * * * //

dimensions      [ 0 0 0 1 0 0 0 ];

internalField   uniform 300;

boundaryField
{
    walls
    {
        type            zeroGradient;
        value           uniform 300;
    }
    battery1_to_Air
    {
        type            compressible::turbulentTemperatureCoupledBaffleMixed;
        value           uniform 300;
      /*  Tnbr            T;
        kappaMethod     solidThermo;*/
    }
/*    minY
    {
        type            fixedValue;
        value           uniform 400;
    }
    maxY
    {
        type            fixedValue;
        inletValue      uniform 300;
    }*/
}


// ************************************************************************* //
