/*--------------------------------*- C++ -*----------------------------------*\
  =========                 |
  \\      /  F ield         | OpenFOAM: The Open Source CFD Toolbox
   \\    /   O peration     | Website:  https://openfoam.org
    \\  /    A nd           | Version:  6
     \\/     M anipulation  |
\*---------------------------------------------------------------------------*/
FoamFile
{
    version     2.0;
    format      ascii;
    class       dictionary;
    object      blockMeshDict;
}
// * * * * * * * * * * * * * * * * * * * * * * * * * * * * * * * * * * * * * //

convertToMeters 0.001;

vertices
(
//coolant inlet bottom
    (0 0 58)		//0
    (2 0 58)		//1
    (2 2 58)		//2
    (0 2 58)		//3
    (0 0 65.5)		//4
    (2 0 65.5)		//5
    (2 2 65.5)		//6
    (0 2 65.5)		//7

//coolant outlet bottom
    (286 0 58)		//8
    (288 0 58)		//9
    (288 2 58)		//10
    (286 2 58)		//11
    (286 0 65.5)	//12
    (288 0 65.5)	//13
    (288 2 65.5)	//14
    (286 2 65.5)	//15

//coolant bottom block
    (2 0 0)		//16
    (286 0 0)		//17
    (286 2 0)		//18
    (2 2 0)		//19

//battery block 1
    (0 69 58)		//20
    (2 69 58)		//21
    (2 69 65.5)		//22
    (0 69 65.5)		//23
//batteryblock 2
    (286 69 58)		//24
    (288 69 58)		//25
    (288 69 65.5)	//26
    (286 69 65.5)	//27
//battery block 3
    (0 2 0)		//28
    (2 69 0)		//29
    (0 69 0)		//30
//battery block 4
    (288 2 0)		//31
    (288 69 0)		//32
    (286 69 0)		//33


//coolant inlet top
    (0 71 58)		//34
    (2 71 58)		//35
    (2 71 65.5)		//36
    (0 71 65.5)		//37
//coolant outlet top
    (286 71 58)		//38
    (288 71 58)		//39
    (288 71 65.5)	//40
    (286 71 65.5)	//41
//coolant block top
    (2 71 0)		//42
    (286 71 0)		//43
    
);

blocks
(
//coolant inlet bottom
    hex (0 1 2 3 4 5 6 7) (2 5 5) simpleGrading (1 1 1)
//coolant outlet bottom
    hex (8 9 10 11 12 13 14 15) (2 5 5) simpleGrading (1 1 1)
//coolant center bottom
    hex (1 8 11 2 5 12 15 6) (140 5 5) simpleGrading (1 1 1)
//coolant block bottom
    hex (16 17 18 19 1 8 11 2) (140 5 10) simpleGrading (1 1 1)

//battery+silica block 1
    hex (3 2 21 20 7 6 22 23) (2 40 5) simpleGrading (1 1 1)
    hex (2 11 24 21 6 15 27 22) (140 40 5) simpleGrading (1 1 1)
    hex (11 10 25 24 15 14 26 27) (2 40 5) simpleGrading (1 1 1)
    hex (28 19 29 30 3 2 21 20) (2 40 10) simpleGrading (1 1 1)
    hex (18 31 32 33 11 10 25 24) (2 40 10) simpleGrading (1 1 1)
    hex (19 18 33 29 2 11 24 21) (140 40 10) simpleGrading (1 1 1)


//coolant inlet top
    hex (20 21 35 34 23 22 36 37) (2 5 5) simpleGrading (1 1 1)
//coolant outlet top
    hex (24 25 39 38 27 26 40 41) (2 5 5) simpleGrading (1 1 1)
//coolant block
    hex (29 33 43 42 21 24 38 35) (140 5 10) simpleGrading (1 1 1)
//coolant center block top
    hex (21 24 38 35 22 27 41 36) (140 5 5) simpleGrading (1 1 1)

);

edges
(
);

boundary
(
    inlet
    {
        type wall;
        faces
        (
            (0 3 7 4)
	    (34 37 23 20)
        );
    }
    outlet
    {
        type wall;
        faces
        (
            (14 10 9 13)
            (40 39 25 26)

        );
    }
    walls
    {
        type wall;
        faces
        (
	//inlet block
            (0 1 2 3)
	   // (3 2 6 7)
	    (0 4 5 1)
	//outlet block
	    (8 9 10 11)
	    (8 12 13 9)
	   // (11 10 14 15)
	//coolant block
	    (16 17 18 19)
	    (19 2 1 16)
	    (11 18 17 8)
	    (16 1 8 17)
	//centerblock
	   // (2 11 15 6)
	    (1 5 12 8)
	//battery+silica
	    (20 23 7 3)
	   // (21 22 23 20)
	    //(24 27 22 21)
	   // (24 25 26 27)
	    (10 14 26 25)
	    (31 10 25 32)
	    (18 31 32 33)
	    (19 18 33 29)
	    (28 19 29 30)
	    (30 20 3 28)
	    (30 29 21 20)
	  //  (29 33 24 21)
	    (33 32 25 24)
	    (28 3 2 19)
	    (18 11 10 31)

	//inlet block top
            (20 21 35 34)
	   // (3 2 6 7)
	    (34 35 36 37)
	//outlet block
	    (24 25 39 38)
	    (38 39 40 41)
	   // (11 10 14 15)
	//coolant block
	    (38 43 33 24)
	    (29 33 43 42)
	    (42 43 38 35)
	    (42 35 21 29)
	//centerblock
	   // (2 11 15 6)
	    (35 38 41 36)
        );
    }

    back
    {
	type symmetry;
	faces
	(
	    (7 6 5 4)
	    (15 14 13 12)
	    (6 15 12 5)
	    (23 22 6 7)
	    (22 27 15 6)
	    (27 26 14 15)
	    (37 36 22 23)
	    (36 41 27 22)
	    (41 40 26 27)
  
	);
    }

  /*  freestream
    {
        type patch;
        faces
        (
            (6 2 1 5)
	    (11 15 12 8)
	    
        );
    }*/
   
);

mergePatchPairs
(
);

// ************************************************************************* //
